; Filename: C:\Users\devan\AppData\Local\Temp\tmpfp9w357d.inp
; WNTR: 1.3.2
; Created: 2026-04-08 13:14:47
[TITLE]
prueba

[JUNCTIONS]
;ID                      Elevation       Demand Pattern                 
 n1                            41.197          0.1575 1                          ;
 n2                            41.439          0.1575 1                          ;
 n3                            40.994          0.1575 1                          ;
 n4                            38.088          0.1575 1                          ;
 n5                            37.565          0.1575 1                          ;
 n6                            38.705          0.1575 1                          ;
 n7                            41.974          0.1575 1                          ;
 n8                            41.928          0.1575 1                          ;
 n9                            43.162          0.1575 1                          ;
 n10                           45.993          0.1575 1                          ;
 n11                           50.486          0.1575 1                          ;
 n12                           36.292          0.1575 1                          ;
 n13                           28.412          0.1575 1                          ;
 n14                            41.38          0.1575 1                          ;
 n15                           42.738          0.1575 1                          ;
 n16                           46.714          0.1575 1                          ;
 n17                           47.829          0.1575 1                          ;
 n18                           43.671          0.1575 1                          ;
 n19                           43.658          0.1575 1                          ;
 n20                           39.666          0.1575 1                          ;
 n21                           40.302          0.1575 1                          ;
 n22                           23.597          0.1575 1                          ;
 n25                             44.7          0.1575 1                          ;
 n26                           45.198          0.1575 1                          ;
 n27                           42.374          0.1575 1                          ;
 n28                            41.72          0.1575 1                          ;
 n29                           47.569          0.1575 1                          ;
 n30                           42.467          0.1575 1                          ;
 n31                           41.146          0.1575 1                          ;
 n32                           24.087          0.1575 1                          ;
 n33                           20.934          0.1575 1                          ;
 n34                           26.292          0.1575 1                          ;
 n35                           44.376          0.1575 1                          ;
 n36                           40.185          0.1575 1                          ;
 n37                           43.503          0.1575 1                          ;
 n38                           45.485          0.1575 1                          ;
 n39                            49.35          0.1575 1                          ;
 n40                           46.077          0.1575 1                          ;
 n41                           42.714          0.1575 1                          ;
 n42                           38.974          0.1575 1                          ;
 n43                           39.752          0.1575 1                          ;
 n44                           39.892          0.1575 1                          ;
 n45                           38.147          0.1575 1                          ;
 n46                           48.238          0.1575 1                          ;
 n47                           45.882          0.1575 1                          ;
 n48                           42.043          0.1575 1                          ;
 n49                           39.465          0.1575 1                          ;
 n50                            37.28          0.1575 1                          ;
 n51                           51.858          0.1575 1                          ;
 n52                           33.476          0.1575 1                          ;
 n53                           43.391          0.1575 1                          ;
 n54                           46.679          0.1575 1                          ;
 n55                           49.812          0.1575 1                          ;
 n56                           50.765          0.1575 1                          ;
 n57                            52.28          0.1575 1                          ;
 n58                           50.502          0.1575 1                          ;
 n59                           34.931          0.1575 1                          ;
 n60                           25.931          0.1575 1                          ;
 n61                           37.033          0.1575 1                          ;
 n62                           37.083          0.1575 1                          ;
 n63                           34.494          0.1575 1                          ;
 n64                           37.962          0.1575 1                          ;
 n65                           44.817          0.1575 1                          ;
 n66                           45.002          0.1575 1                          ;
 n67                           45.099          0.1575 1                          ;
 n68                           38.154          0.1575 1                          ;
 n69                           46.728          0.1575 1                          ;
 n70                           34.553          0.1575 1                          ;
 n71                           47.093          0.1575 1                          ;
 n72                           43.788          0.1575 1                          ;
 n73                            41.93          0.1575 1                          ;
 n74                           35.438          0.1575 1                          ;
 n75                           47.193          0.1575 1                          ;
 n76                           47.849          0.1575 1                          ;
 n77                           47.882          0.1575 1                          ;
 n78                           55.169          0.1575 1                          ;
 n79                            56.42          0.1575 1                          ;
 n80                      45.67340374          0.1575 1                          ;
 n81                             43.3          0.1575 1                          ;
 n82                           50.586          0.1575 1                          ;
 n83                           50.212          0.1575 1                          ;
 n84                           39.242          0.1575 1                          ;
 n85                           37.735          0.1575 1                          ;
 n86                           50.795          0.1575 1                          ;
 n87                           70.804          0.1575 1                          ;
 n88                           34.958          0.1575 1                          ;
 n89                           34.323          0.1575 1                          ;
 n91                     24.879806503          0.1575 1                          ;
 n92                           32.642          0.1575 1                          ;
 n93                           38.451          0.1575 1                          ;
 n94                           37.067          0.1575 1                          ;
 n95                           47.767          0.1575 1                          ;
 n96                            35.19          0.1575 1                          ;
 n97                           51.785          0.1575 1                          ;
 n98                           23.842          0.1575 1                          ;
 n99                           45.875          0.1575 1                          ;
 n100                          34.709          0.1575 1                          ;
 n101                          42.086          0.1575 1                          ;
 n102                          35.083          0.1575 1                          ;
 n103                          35.808          0.1575 1                          ;
 n104                          36.735          0.1575 1                          ;
 n105                            37.1          0.1575 1                          ;
 n106                          37.018          0.1575 1                          ;
 n107                          37.214          0.1575 1                          ;
 n108                          37.525          0.1575 1                          ;
 n109                          35.242          0.1575 1                          ;
 n110                          34.326          0.1575 1                          ;
 n111                          36.266          0.1575 1                          ;
 n112                          36.757          0.1575 1                          ;
 n113                          50.944          0.1575 1                          ;
 n114                          51.166          0.1575 1                          ;
 n115                          39.557          0.1575 1                          ;
 n116                          37.418          0.1575 1                          ;
 n117                           34.19          0.1575 1                          ;
 n118                          33.987          0.1575 1                          ;
 n119                            34.3          0.1575 1                          ;
 n120                          36.105          0.1575 1                          ;
 n121                           36.34          0.1575 1                          ;
 n122                          34.884          0.1575 1                          ;
 n123                          35.152          0.1575 1                          ;
 n124                          35.117          0.1575 1                          ;
 n125                          39.288          0.1575 1                          ;
 n126                          39.392          0.1575 1                          ;
 n127                          40.128          0.1575 1                          ;
 n128                          35.121          0.1575 1                          ;
 n129                          55.214          0.1575 1                          ;
 n130                          63.427          0.1575 1                          ;
 n131                          51.542          0.1575 1                          ;
 n132                          43.946          0.1575 1                          ;
 n133                          43.812          0.1575 1                          ;
 n134                          44.824          0.1575 1                          ;
 n135                          59.391          0.1575 1                          ;
 n136                          60.968          0.1575 1                          ;
 n137                         58.0015          0.1575 1                          ;
 n138                          51.531          0.1575 1                          ;
 n139                          46.838          0.1575 1                          ;
 n140                          56.357          0.1575 1                          ;
 n141                          62.158          0.1575 1                          ;
 n142                          62.105          0.1575 1                          ;
 n143                          44.121          0.1575 1                          ;
 n144                          42.444          0.1575 1                          ;
 n145                          60.767          0.1575 1                          ;
 n146                          65.934          0.1575 1                          ;
 n147                          66.734          0.1575 1                          ;
 n148                          66.826          0.1575 1                          ;
 n149                          52.191          0.1575 1                          ;
 n150                          40.256          0.1575 1                          ;
 n151                          40.264          0.1575 1                          ;
 n152                          40.738          0.1575 1                          ;
 n153                          42.373          0.1575 1                          ;
 n154                          46.895          0.1575 1                          ;
 n155                          58.687          0.1575 1                          ;
 n156                          35.486          0.1575 1                          ;
 n157                          50.623          0.1575 1                          ;
 n158                          38.758          0.1575 1                          ;
 n159                          46.904          0.1575 1                          ;
 n160                          79.036          0.1575 1                          ;
 n161                          65.076          0.1575 1                          ;
 n162                          30.454          0.1575 1                          ;
 n163                          60.426          0.1575 1                          ;
 n164                          62.869          0.1575 1                          ;
 n165                           61.48          0.1575 1                          ;
 n166                          75.298          0.1575 1                          ;
 n167                          41.903          0.1575 1                          ;
 n168                          44.868          0.1575 1                          ;
 n169                          44.602          0.1575 1                          ;
 n170                          45.573          0.1575 1                          ;
 n171                          36.725          0.1575 1                          ;
 n172                          37.033          0.1575 1                          ;
 n173                          62.158          0.1575 1                          ;
 n174                          38.154          0.1575 1                          ;
 n175                          44.824          0.1575 1                          ;
 n176                            34.3          0.1575 1                          ;
 n177                          35.152          0.1575 1                          ;
 n178                          37.418          0.1575 1                          ;
 n179                          50.212          0.1575 1                          ;
 n180                          49.812          0.1575 1                          ;
 n181                           41.72          0.1575 1                          ;
 n182                          43.503          0.1575 1                          ;
 n183                          39.666          0.1575 1                          ;
 n184                          50.944          0.1575 1                          ;
 n185                          43.391          0.1575 1                          ;
 n186                          40.264          0.1575 1                          ;
 n187                          40.738          0.1575 1                          ;
 n188                          75.298          0.1575 1                          ;
 n189                          75.298          0.1575 1                          ;
 n190                          36.266          0.1575 1                          ;
 n191                           121.2               0 1                          ;
 n192                            75.3               0 1                          ;

[RESERVOIRS]
;ID                                   Head                  Pattern
 RES-1                             20                            ;

[TANKS]
;ID                              Elevation           Init Level            Min Level            Max Level             Diameter           Min Volume Volume Curve         Overflow            
 1                            121.204             0.1               0               4              30               0                                             ;

[PIPES]
;ID                   Node1                Node2                              Length             Diameter            Roughness           Minor Loss               Status
 p1                   n1                   n2                             35.59            80.8             140               3                 Open   ;
 p2                   n3                   n1                             4.584           143.4             140               3                 Open   ;
 p3                   n4                   n3                             161.3           143.4             140               3                 Open   ;
 p4                   n5                   n4                             151.7           143.4             140               3                 Open   ;
 p5                   n6                   n5                             138.3           143.4             140               3                 Open   ;
 p6                   n7                   n6                             169.5           143.4             140               3                 Open   ;
 p7                   n8                   n7                            0.7763           143.4             140               3                 Open   ;
 p8                   n9                   n8                             264.2           143.4             140               3                 Open   ;
 p9                   n10                  n9                             111.3           143.4             140               3                 Open   ;
 p10                  n11                  n10                              162           143.4             140               3                 Open   ;
 p11                  n12                  n13                            101.1           143.4             140               3                 Open   ;
 p12                  n14                  n12                            54.67           143.4             140               3                 Open   ;
 p13                  n15                  n14                            25.39           143.4             140               3                 Open   ;
 p14                  n16                  n15                            81.98           143.4             140               3                 Open   ;
 p15                  n17                  n16                            84.51           143.4             140               3                 Open   ;
 p16                  n18                  n17                            81.45           143.4             140               3                 Open   ;
 p17                  n19                  n18                           0.8546            80.8             140               3                 Open   ;
 p18                  n20                  n19                            89.57           143.4             140               3                 Open   ;
 p19                  n21                  n20                            299.1           143.4             140               3                 Open   ;
 p20                  n3                   n21                            10.54           143.4             140               3                 Open   ;
 p21                  n13                  n22                            99.36            80.8             140               3                 Open   ;
 p23                  n25                  n21                              102            80.8             140               3                 Open   ;
 p24                  n26                  n25                            5.206            80.8             140               3                 Open   ;
 p25                  n27                  n26                            103.4            80.8             140               3                 Open   ;
 p26                  n28                  n181                           43.01            80.8             140               3                 Open   ;
 p27                  n19                  n28                            133.8            80.8             140               3                 Open   ;
 p28                  n25                  n29                            31.85            80.8             140               3                 Open   ;
 p29                  n30                  n31                            46.82            80.8             140               3                 Open   ;
 p30                  n27                  n30                            1.616            80.8             140               3                 Open   ;
 p31                  n28                  n32                            286.9            80.8             140               3                 Open   ;
 p32                  n32                  n33                            221.9            80.8             140               3                 Open   ;
 p33                  n32                  n34                            39.83            80.8             140               3                 Open   ;
 p34                  n35                  n36                            48.25            80.8             140               3                 Open   ;
 p35                  n37                  n35                            111.7            80.8             140               3                 Open   ;
 p36                  n38                  n37                            173.3            80.8             140               3                 Open   ;
 p37                  n39                  n38                            50.07            80.8             140               3                 Open   ;
 p38                  n40                  n39                            82.34            80.8             140               3                 Open   ;
 p39                  n41                  n40                            31.86            80.8             140               3                 Open   ;
 p40                  n42                  n41                            68.43            80.8             140               3                 Open   ;
 p41                  n43                  n42                            93.96           143.4             140               3                 Open   ;
 p42                  n1                   n43                            29.81           143.4             140               3                 Open   ;
 p43                  n35                  n44                            84.49            80.8             140               3                 Open   ;
 p44                  n40                  n182                           248.7            80.8             140               3                 Open   ;
 p45                  n38                  n45                            86.28            80.8             140               3                 Open   ;
 p46                  n39                  n46                            145.3            80.8             140               3                 Open   ;
 p47                  n47                  n41                            64.16            80.8             140               3                 Open   ;
 p48                  n43                  n48                            64.65            80.8             140               3                 Open   ;
 p49                  n49                  n50                            12.19            80.8             140               3                 Open   ;
 p50                  n51                  n49                            124.7            80.8             140               3                 Open   ;
 p51                  n18                  n51                            283.4            80.8             140               3                 Open   ;
 p52                  n49                  n52                            59.74            80.8             140               3                 Open   ;
 p53                  n53                  n185                           81.71            80.8             140               3                 Open   ;
 p54                  n51                  n53                            141.3            80.8             140               3                 Open   ;
 p55                  n54                  n183                           174.7            80.8             140               3                 Open   ;
 p56                  n55                  n54                            72.43            80.8             140               3                 Open   ;
 p57                  n8                   n180                           67.77            80.8             140               3                 Open   ;
 p58                  n6                   n54                            102.9            80.8             140               3                 Open   ;
 p59                  n56                  n57                            27.28            80.8             140               3                 Open   ;
 p60                  n55                  n56                            6.767            80.8             140               3                 Open   ;
 p61                  n56                  n58                            51.34            80.8             140               3                 Open   ;
 p62                  n59                  n60                               74            80.8             140               3                 Open   ;
 p63                  n53                  n59                            243.4            80.8             140               3                 Open   ;
 p64                  n61                  n11                              124           143.4             140               3                 Open   ;
 p65                  n59                  n172                           65.95            80.8             140               3                 Open   ;
 p66                  n61                  n62                            104.9            80.8             140               3                 Open   ;
 p67                  n63                  n64                            67.56            80.8             140               3                 Open   ;
 p68                  n65                  n66                            2.331            80.8             140               3                 Open   ;
 p69                  n64                  n65                               52            80.8             140               3                 Open   ;
 p70                  n65                  n67                            45.22            80.8             140               3                 Open   ;
 p71                  n64                  n68                            150.3            80.8             140               3                 Open   ;
 p72                  n68                  n174                           62.82            80.8             140               3                 Open   ;
 p73                  n70                  n68                            21.47            80.8             140               3                 Open   ;
 p74                  n69                  n71                            5.416            80.8             140               3                 Open   ;
 p75                  n72                  n69                            88.68             200             140               3                 Open   ;
 p76                  n73                  n72                            133.7            80.8             140               3                 Open   ;
 p77                  n74                  n72                            186.8             200             140               3                 Open   ;
 p78                  n5                   n74                            215.6             200             140               3                 Open   ;
 p79                  n75                  n71                            2.095            80.8             140               3                 Open   ;
 p80                  n76                  n75                            52.35             200             140               3                 Open   ;
 p81                  n77                  n76                            2.646            80.8             140               3                 Open   ;
 p82                  n78                  n77                            235.7             200             140               3                 Open   ;
 p83                  n79                  n78                            37.62             200             140               3                 Open   ;
 p84                  n80                  n79                            190.5             200             140               3                 Open   ;
 p85                  n81                  n80                            145.6             200             140               3                 Open   ;
 p86                  n82                  n81                              185            80.8             140               3                 Open   ;
 p87                  n83                  n179                           79.38            80.8             140               3                 Open   ;
 p88                  n66                  n83                            72.31            80.8             140               3                 Open   ;